!Check Keywords "Warn"
!echo on

$Mesh = "<m>"
$Step = "test1d_frontprop_"

$yearinsec = 31556926.0
$rhoi = 910.0/(1.0e6*yearinsec^2)
$rhow = 1028.0/(1.0e6*yearinsec^2)
$gravity = -9.81*yearinsec^2
$n = 3.0

$Bo = 1.9e8 !Pa s^(1/3)
$A = ((Bo*1.0e-6)^(-n))*yearinsec

$B = A^(-1.0/n)
$eta = A^(-1.0/n)
$mesheta = (2*A)^(-1.0/n)
$viscexp = 1.0/3.0

$timestep = 1.0/12.0

!the mass balance
$M = 0.0
$gridres=<gr>.0
$pfrac = <ppe>.0

$splitlength = (gridres/sqrt(pfrac))*1.5

Header
  Mesh DB "./.." "$Mesh$"
End

Constants

H0 = Real 600.0
v0 = Real 300.0
!-------------------------!
!     ICE PARAMETERS      !
!-------------------------!
Analytic Test = Logical True

Ice Density = Real $rhoi
Water Density = Real $rhow
Gravity = Real $gravity
Sea Level = Real 0.0

Maximum Time Step = Real $timestep
Critical Shear Rate = Real 1.0E-9
Viscosity Exponent = Real $viscexp

Number of Particle Layers = Integer 8
Number of Temperature Layers = Integer 8

Constant Linear Temperature = Logical False
surftemp = Real 0.0
basetemp = Real 0.0

Use Constant Temperature = Logical False
Constant Temperature = Real 0.0

!viscosity parameter
Use Given Eta = Logical True
Given Eta = Real $eta

Constant Friction Parameter = Logical True
fricparam = Real 0.0

!mass balance
Constant MB Parameter = Logical True
mbparam = Real $M

!enhancement factor
Constant EF Parameter = Logical True
efparam = Real 1.0

!-------------------------!
!         DAMAGE          !
!-------------------------!

!turn on to use damage
Use damage = Logical False
!Damage Model = String "zero stress"
Damage Model = String "creep"
Critical Damage = Real 0.85
Critical Dav = Real 0.5
DMax I = Real 0.99
DMax II = Real 0.99
DMax III = Real 0.99
Dav DMax I = Real 0.9
Dav DMax II = Real 0.9
Dav DMax III = Real 0.9
ah = Real 0.21
Bf = Real 16.5043
Bh = Real 0.63
k1 = Real 4.0
k2 = Real 0.0
gamma = Real 0.0
rf = Real 0.43
sthres = Real 0.2
rift dmax = Real 0.9
use rift dmax = Logical True
Dinit Tolerance = Real 1.0e-08
Dinit Warning Tolerance= Real 5.0e-02
Dinit Iters = Integer 5000
No Init Dam = Logical True
First aniso dt = Real 0.0
First zero stress dt = Real $timestep
Use time based rift healing = Logical False
Use Isotropic Damage for Initially Damaged Particles = Logical False
Use Modified Murakami = Logical False
No Dzz = Logical False
Fix Dav Principal Directions = Logical False
Rupture All Damage Components for Rift = Logical True
Restrict Damage = Logical False
Use No Damage Region = Logical False
in Damage Threshold = Real 1.0e-10

!-------------------------!
!        sMPM/GIMPM       !
!-------------------------!

!"smpm" !"gimpm"
Shape Functions = String "<sf>"

Particle Element Fraction = Real <ppe>.0
Grid Resolution = Real $gridres

Move GL = Logical True
Use SEP = Logical True

!for particle allocation/splitting
Maximum Particle Length = Real $splitlength
Maximum Damaged Particle Length = Real $splitlength
Maximum Grounding Line Particle Length = Real $splitlength
Dav Split Threshold = Real 0.0
Number Of Buffer Particles = Integer 0
Use BC for PrevVel = Logical True
Use Thickness BC = Logical True

Update Particle Velocities for Friction = Logical False
Use Coulomb Friction = Logical False
Use Saved Basis = Logical True

Always fill not full elements = Logical False

cfl constant = Real 0.5

!-------------------------!
!      MISCELLANEOUS      !
!-------------------------!

First Timestep Zero = Logical True
Use Steady Timestep = Logical True
Steady Timestep = Real $timestep

End

!!!!!!!!!!!!!!!!!!!!!!!!!!!!!!!!!!!!!!!
!             SIMULATION              !
!!!!!!!!!!!!!!!!!!!!!!!!!!!!!!!!!!!!!!!
Simulation
  Coordinate System  = Cartesian 2D
  Simulation Type = Transient
  Timestepping Method = String BDF
  BDF Order = Integer 2
  Timestep Intervals = Integer 3601 !4201 !350 years if monthly timestep
   Output Intervals = Integer 0

  !Timestep Sizes =  Real $timestep

  Timestep Size
  Real Procedure "./../../PROG/MPM" "SSATimestep"

  Steady State Max Iterations = Integer 1

  !Output File = "$Step$.result"
  !Post File = "$Step$.vtu"

  max output level = 1
End

!!!!!!!!!!!!!!!!!!!!!!!!!!!!!!!!!!!!!!!
!             BODY                    !
!!!!!!!!!!!!!!!!!!!!!!!!!!!!!!!!!!!!!!!
! The bulk
Body 1
Name = "ice"
  Equation = 1
  Body Force = 1
  Material = 1
  Initial Condition = 1
End

!!!!!!!!!!!!!!!!!!!!!!!!!!!!!!!!!!!!!!!
!         INITIAL CONDITIONS          !
!!!!!!!!!!!!!!!!!!!!!!!!!!!!!!!!!!!!!!!
Initial Condition 1

  icerises = real -1.0

  Surface = Variable "Coordinate 1"
    Real Procedure "./../USF_1dtest" "initsurf"

  H = Variable "Coordinate 1"
    Real Procedure "./../USF_1dtest" "initH"

  Hinit = Variable "Coordinate 1"
    Real Procedure "./../USF_1dtest" "initH"

  SSAVelocity 1 = Variable "Coordinate 1"
   Real Procedure "./../USF_1dtest" "initVel"
  SSAVelocity 2 = Real 0.0

  InitVel 1 = Variable "Coordinate 1"
   Real Procedure "./../USF_1dtest" "initVel"
  InitVel 2 = Real 0.0

  PrevVel 1 = Equals SSAVelocity 1
  PrevVel 2 = Equals SSAVelocity 2
  TempVar = Real 0.0
  Vstar = Real 0.0
  Vplus = Real 0.0
  dmask = real -1.0
  InvVisc= Real $eta
  Rift = Real 0.0
  Rift2 = Real 0.0
  FP = Real 0.0
  Mask = Real -1.0
  EF = Real 1.0
  Bed = Real -9999999999999.0
  Particle B = Real $eta
End

!!!!!!!!!!!!!!!!!!!!!!!!!!!!!!!!!!!!!!!
!            BODY FORCE               !
!!!!!!!!!!!!!!!!!!!!!!!!!!!!!!!!!!!!!!!
Body Force 1
  Flow BodyForce 1 = Real 0.0
  Flow BodyForce 2 = Real 0.0
  Flow BodyForce 3 = Real $gravity

  Passive Element Min Nodes = Integer 1

  SSAVelocity Passive = Variable Surface
    Real Procedure "./../../PROG/USF_MPM" "getpassive"

  H Lower Limit = Real 1.0

  SSAVelocity 2 = Real 0.0

  SSAVelocity 1 = Equals InitVel 1
  SSAVelocity 1 Condition = Variable "Coordinate 1"
    Real MATC "-tx + <gr>.1"
End


!!!!!!!!!!!!!!!!!!!!!!!!!!!!!!!!!!!!!!!!!
!             MATERIAL                  !
!!!!!!!!!!!!!!!!!!!!!!!!!!!!!!!!!!!!!!!!!
Material 1
  Critical Shear Rate = Real 1.0E-10 !*  yearinsec
  Viscosity Model = String "power law"
  Viscosity Exponent = $1.0/n

  SSA Mean Viscosity = Equals "particle b"
  SSA Mean Density = Real $rhoi

  SSA Friction Law = String "linear"
  SSA Friction Parameter = Real 0.0
  Min H = Real 1.0
End


!!!!!!!!!!!!!!!!!!!!!!!!!!!!!!!!!!!!!!!!
!		SOLVERS		       !
!!!!!!!!!!!!!!!!!!!!!!!!!!!!!!!!!!!!!!!!

Solver 2
  exec solver = "before all"
  Equation = "Initial Floatation"
  Procedure = File "./../../PROG/MPM_Floatation" "Floatation"
  Variable = "Mask"
  Bottom Surface Name = String "Zb"
  Top Surface Name = String "Zs"
  Thickness Variable Name = String "H"
End

Solver 3
  exec solver = "before all"
  Equation = "MPM Init"
  Procedure = "./../../PROG/MPM" "MPM_Initialize"

  Initialization Condition Variable = String Surface
  Passive Mask Variable Name = String "Surface"
  InvVisc Variable Name = String "InvVisc"
  Velocity Variable Name = String "SSAVelocity"
  Additional Initial D Variable Name = String "Rift2"
  Thickness Variable Name = String "H"
  Friction Parameter Name = String "FP"
  Surface Height Variable Name = String "Zs"
  Damage Mask Variable Name = String "Mask"
  EF Variable Name = String "EF"
  Bedrock Variable Name = String "bed"

  Test1d = Logical True
  dirichlet max x = Real 300000.0
End

Solver 4
  Equation = "MPM SSA"
  Variable = -dofs 2 "SSAVelocity"
  Procedure = "./../../PROG/MPM" "MPM_SSA"
  Calculate Loads = Logical True
  Apply Limiter =  True
  GL integration points number = Integer 4

!defaults to true for smpm and false for gimpm
 ! Particle Reweighting = Logical True

  xpic m = Integer 5
  xpic interval = Integer 1

  Linear System Solver = Direct !Iterative
  Linear System Direct Method = umfpack
 ! Linear System Iterative Method = BiCGStab
  Linear System Max Iterations = 10000
 ! Linear System Preconditioning = "ILU2"
  Linear System Convergence Tolerance = 1.0e-8
  Linear System Abort Not Converged = True
  Nonlinear System Max Iterations = 20000
  Nonlinear System Convergence Tolerance  = 1.0e-8
  Nonlinear System Newton After Iterations = 300
  Nonlinear System Newton After Tolerance = 1.0e-4
  Nonlinear System Relaxation Factor = 0.8 !!0.9
  Steady State Convergence Tolerance = Real 1.0e-8

  Use Adaptive Relaxation = Logical True
  Adaptive Norm Mult Threshold = Real 1.25

  Max Norm = Real 100000.0

  Exported Variable 1 = -dofs 1 "zb"
  Exported Variable 2 = -dofs 2 "Vstar"
  Exported Variable 3 = -dofs 2 "Vplus"
  Exported Variable 4 = -dofs 1 "rift"
  Exported Variable 5 = -dofs 1 "EF"
  Exported Variable 6 = -dofs 1 "weight"
  Exported Variable 7 = -dofs 1 "Effective Pressure"
  Exported Variable 8 = -dofs 1 "Particle B"
  Exported Variable 9 = -dofs 1 "icerises"
  Exported Variable 10 = -dofs 1 "btrack"

  Filename Prefix = String "frontprop1d_<sf>_ppe<ppe>_<gr>_FAIL"
  Filename Directory = String "./results/"
  Ascii Output = Logical True

  Output Format = String "vtu"
  Save All = Logical True
End

Solver 5
Exec Solver = never
  Equation = "save error"
  Procedure = "./../../PROG/MPM" "SteadyStressError_1DTest"

  minx = Real <gr>.1
  maxx = Real 250000.0

   Filename Prefix = String "frontprop1d_<sf>_ppe<ppe>_<gr>_stresserror"
   Filename Directory = String "./results"
End

Solver 6
  Equation = "save front x"
  Procedure = "./../../PROG/MPM" "SaveMaxFrontX_1DTest"

  Save thickness = Logical True

   Filename Prefix = String "frontprop1d_<sf>_ppe<ppe>_<gr>_frontx"
   Filename Directory = String "./results"
End

Solver 7
  Equation = "update particle position and constants and mb"
  Procedure = "./../../PROG/MPM" "ParticleUpdates"
   Update GIMPM with Corners = Logical False
End

Solver 8
Exec solver = never
  Procedure = "./../../PROG/MPM" "SaveParticleData"
  Equation = "save stuff"

  Ascii Output = Logical True

  Output Format = String "vtu"
  Output Interval = Integer 100
  Use Output Interval = Logical False

  Save Interval = Real 25.0

  Filename Prefix = String "frontprop_<sf>_ppe<ppe>_<gr>_"

  Filename Directory = String "./results/"

  Vector Field 1 = String "velocity"
  Vector Field 2 = String "length"
  Vector Field 3 = String "gradvel"
  Vector Field 4 = String "gridvelocity"
  Vector Field 5 = String "gradzs"
  Vector Field 6 = String "gradH"
  Vector Field 7 = String "strain"
  Vector Field 8 = String "nextcoordinate"

  Scalar Field 1 = String "h"
  Scalar Field 2 = String "particle time"
  Scalar Field 3 = String "no"
  Scalar Field 4 = String "origno"
  Scalar Field 5 = String "gvolume"
  Scalar Field 6 = String "pvolume"
  Scalar Field 7 = String "mass"
End

Solver 9
  Equation = "update particle H and Mass"
  Procedure = "./../../PROG/MPM" "UpdateParticleHandMass"

  no h update = Logical False
  Fix H = Logical True
  dirichlet max x = Real <gr>.1
End

Solver 10
  Equation = "update H,Velocity,Binit on Mesh from Particles"
  Procedure = "./../../PROG/MPM" "ParticlesToMesh"

  Test1d = Logical True
  dirichlet max x = Real <gr>.1
End

Solver 11
  Equation = "Floatation"
  Procedure = File "./../../PROG/MPM_Floatation" "Floatation"
  Variable = "Mask"
  Bottom Surface Name = String "Zb"
  Top Surface Name = String "Zs"
  Thickness Variable Name = String "H"
End

Solver 12
  Equation = "update particle Gmask,bed,gradzs,gradvel,ef,fp,binit,gridvel"
  Procedure = "./../../PROG/MPM" "MeshToParticles"
End


Solver 1
  Exec Solver = never
  Equation = "Navier-Stokes"
   Stabilization Method = String Bubbles
   Flow Model = Stokes

   Exported Variable 1 = -dofs 1 "surface"
   Exported Variable 2 = -dofs 1 "H"
   Exported Variable 3 = -dofs 1 "bed"
   Exported Variable 4 = -dofs 1 "MB"
   Exported Variable 5 = -dofs 1 "fp"
   Exported Variable 6 = -dofs 1 "invvisc"
   Exported Variable 7 = -dofs 1 "mask"
   Exported Variable 8 = -dofs 1 "rift2"
   Exported Variable 9 = -dofs 1 "dmask"
   Exported Variable 10 = -dofs 1 "zs"
   Exported Variable 11 = -dofs 1 "mass"
   Exported Variable 12 = -dofs 2 "invvel"
   Exported Variable 13 = -dofs 2 "ssavelocity"
   Exported Variable 14 = -dofs 1 "TempVar"
   Exported Variable 15 = -dofs 2 "PrevVel"
   Exported Variable 16 = -dofs 1 "btz"
   Exported Variable 17 = -dofs 2 "initvel"
   Exported Variable 18 = -dofs 1 "Hinit"

End

!!!!!!!!!!!!!!!!!!!!!!!!!!!!!!!!!!!!!!
!           EQUATION                 !
!!!!!!!!!!!!!!!!!!!!!!!!!!!!!!!!!!!!!!

Equation 1
  Active Solvers(12) = 1 2 3 4 5 6 7 8 9 10 11 12
End


!!!!!!!!!!!!!!!!!!!!!!!!!!!!!!!!!!!!!!
!       BOUNDARY CONDITIONS          !
!!!!!!!!!!!!!!!!!!!!!!!!!!!!!!!!!!!!!!

! Grounded
Boundary Condition 1
Target Boundaries(1) = 4
  SSAVelocity 1 = Equals InitVel 1
  SSAVelocity 2 = Real 0.0
  PrevVel 1 = Equals InitVel 1
  PrevVel 2 = Real 0.0
  VPlus 2 = Real 0.0
End

Boundary Condition 2
  Target Boundaries(1) = 1
  SSAVelocity 2 = Real 0.0
  PrevVel 2 = Real 0.0
  VPlus 2 = Real 0.0
End

Boundary Condition 3
  Target Boundaries(1) = 3
  SSAVelocity 2 = Real 0.0
  PrevVel 2 = Real 0.0
  VPlus 2 = Real 0.0
End

! Front
Boundary Condition 4
  Target Boundaries(1) = 2
  Calving Front = Logical True
End

Boundary Condition 5
  Target Boundaries(1) = 5
  Passive Target = Logical True
  Calving Front = Logical True
End
